<?xml version="1.0" encoding="UTF-8"?>

<!-- generated on 2022-06-24 12:22:51 by Eclipse SUMO netconvert Version 1.12.0
<configuration xmlns:xsi="http://www.w3.org/2001/XMLSchema-instance" xsi:noNamespaceSchemaLocation="http://sumo.dlr.de/xsd/netconvertConfiguration.xsd">

    <input>
        <node-files value="myNode.nod.xml"/>
        <edge-files value="myEdge.edg.xml"/>
        <type-files value="myType.type.xml"/>
    </input>

    <output>
        <output-file value="myNet.net.xml"/>
    </output>

    <report>
        <aggregate-warnings value="5"/>
    </report>

</configuration>
-->

<net version="1.9" junctionCornerDetail="5" limitTurnSpeed="5.50" xmlns:xsi="http://www.w3.org/2001/XMLSchema-instance" xsi:noNamespaceSchemaLocation="http://sumo.dlr.de/xsd/net_file.xsd">

    <location netOffset="0.00,0.00" convBoundary="0.00,0.00,3500.00,0.00" origBoundary="-0.00,0.00,3500.00,0.00" projParameter="!"/>

    <type id="2L45" priority="3" numLanes="1" speed="45.00"/>

    <edge id="1to2" from="n1" to="n2" priority="3" type="2L45">
        <lane id="1to2_0" index="0" speed="45.00" length="3500.00" shape="0.00,-1.60 3500.00,-1.60"/>
    </edge>

    <junction id="n1" type="dead_end" x="0.00" y="0.00" incLanes="" intLanes="" shape="0.00,0.00 0.00,-3.20"/>
    <junction id="n2" type="dead_end" x="3500.00" y="0.00" incLanes="1to2_0" intLanes="" shape="3500.00,-3.20 3500.00,0.00"/>

</net>
